@<TRIPOS>MOLECULE
H02
 25 25 0 0 0
SMALL
GASTEIGER

@<TRIPOS>ATOM
      1 N           1.1505    0.0274   -0.0047 n       1  UNL1        0.1212
      2 C1          0.5505    0.6000   -1.2446 c3      1  UNL1        0.1491
      3 C2          1.0399   -0.1595   -2.4791 c3      1  UNL1       -0.1337
      4 C3         -0.9583    0.5853   -1.1534 ca      1  UNL1        0.1148
      5 C4         -1.6814    1.7868   -1.2239 ca      1  UNL1       -0.2509
      6 C5         -3.0762    1.7778   -1.1630 ca      1  UNL1        0.0093
      7 C6         -3.7629    0.5740   -1.0255 ca      1  UNL1       -0.1261
      8 C7         -3.0594   -0.6238   -0.9457 ca      1  UNL1        0.0093
      9 C8         -1.6668   -0.6207   -1.0101 ca      1  UNL1       -0.2509
     10 CA          2.6498    0.0564    0.1049 c3      1  UNL1       -0.2947
     11 C           3.1100   -0.5493    1.4285 c       1  UNL1        0.8695
     12 O           2.2475   -0.9450    2.2137 o       1  UNL1       -0.6050
     13 H1          0.8372   -0.9399    0.1553 hn      1  UNL1        0.1611
     14 H2          0.7689    0.5200    0.8177 hn      1  UNL1        0.1611
     15 H3          0.9094    1.6357   -1.2962 h1      1  UNL1        0.0484
     16 H4          0.8291   -1.2320   -2.4122 hc      1  UNL1        0.0594
     17 H5          2.1200   -0.0394   -2.6231 hc      1  UNL1        0.0594
     18 H6          0.5572    0.2204   -3.3849 hc      1  UNL1        0.0594
     19 H7         -1.1789    2.7460   -1.3425 ha      1  UNL1        0.1362
     20 H8         -3.6341    2.7103   -1.2309 ha      1  UNL1        0.1046
     21 H9         -4.8508    0.5686   -0.9875 ha      1  UNL1        0.1291
     22 H10        -3.6009   -1.5624   -0.8434 ha      1  UNL1        0.1046
     23 H11        -1.1553   -1.5800   -0.9644 ha      1  UNL1        0.1362
     24 H12         2.9570    1.1028    0.0354 h1      1  UNL1        0.1143
     25 H13         3.0455   -0.5503   -0.7121 h1      1  UNL1        0.1143
@<TRIPOS>BOND
     1     1     2    1
     2     2     3    1
     3     2     4    1
     4     4     5   ar
     5     5     6   ar
     6     6     7   ar
     7     7     8   ar
     8     8     9   ar
     9     4     9   ar
    10     1    10    1
    11    10    11    1
    12    11    12    2
    13     1    13    1
    14     1    14    1
    15     2    15    1
    16     3    16    1
    17     3    17    1
    18     3    18    1
    19     5    19    1
    20     6    20    1
    21     7    21    1
    22     8    22    1
    23     9    23    1
    24    10    24    1
    25    10    25    1
@<TRIPOS>SUBSTRUCTURE
      1 H02               1 ****               0 ****  ****
@<TRIPOS>HEADTAIL
N  0
C  1
@<TRIPOS>RESIDUECONNECT
1 0 C 0 0 0 0
